<?xml version="1.0" encoding="UTF-8"?>

<!-- generated on 2025-11-07 18:17:51 by Eclipse SUMO netedit Version 1.12.0
<configuration xmlns:xsi="http://www.w3.org/2001/XMLSchema-instance" xsi:noNamespaceSchemaLocation="http://sumo.dlr.de/xsd/netconvertConfiguration.xsd">

    <input>
        <sumo-net-file value="map.net.xml"/>
    </input>

    <output>
        <output-file value="map.net.xml"/>
    </output>

    <processing>
        <geometry.min-radius.fix.railways value="false"/>
        <geometry.max-grade.fix value="false"/>
        <offset.disable-normalization value="true"/>
        <lefthand value="false"/>
    </processing>

    <junctions>
        <no-turnarounds value="true"/>
        <junctions.corner-detail value="5"/>
        <junctions.limit-turn-speed value="5.5"/>
        <rectangular-lane-cut value="false"/>
    </junctions>

    <pedestrian>
        <walkingareas value="false"/>
    </pedestrian>

    <report>
        <aggregate-warnings value="5"/>
    </report>

</configuration>
-->

<net version="1.9" junctionCornerDetail="5" limitTurnSpeed="5.50" xmlns:xsi="http://www.w3.org/2001/XMLSchema-instance" xsi:noNamespaceSchemaLocation="http://sumo.dlr.de/xsd/net_file.xsd">

    <location netOffset="-256851.87,142546.95" convBoundary="0.00,0.00,1861.87,1327.03" origBoundary="36.814883,-1.288730,36.831934,-1.276734" projParameter="+proj=utm +zone=37 +ellps=WGS84 +datum=WGS84 +units=m +no_defs"/>

    <type id="highway.bridleway" priority="1" numLanes="1" speed="2.78" allow="pedestrian" oneway="1" width="2.00"/>
    <type id="highway.bus_guideway" priority="1" numLanes="1" speed="27.78" allow="bus" oneway="1"/>
    <type id="highway.cycleway" priority="1" numLanes="1" speed="8.33" allow="bicycle" oneway="0" width="1.00"/>
    <type id="highway.footway" priority="1" numLanes="1" speed="2.78" allow="pedestrian" oneway="1" width="2.00"/>
    <type id="highway.ford" priority="1" numLanes="1" speed="2.78" allow="army" oneway="0"/>
    <type id="highway.living_street" priority="2" numLanes="1" speed="2.78" disallow="tram rail_urban rail rail_electric rail_fast ship" oneway="0"/>
    <type id="highway.motorway" priority="14" numLanes="2" speed="39.44" allow="private emergency authority army vip passenger hov taxi bus coach delivery truck trailer motorcycle evehicle custom1 custom2" oneway="1"/>
    <type id="highway.motorway_link" priority="9" numLanes="1" speed="22.22" allow="private emergency authority army vip passenger hov taxi bus coach delivery truck trailer motorcycle evehicle custom1 custom2" oneway="1"/>
    <type id="highway.path" priority="1" numLanes="1" speed="2.78" allow="pedestrian bicycle" oneway="0" width="2.00"/>
    <type id="highway.pedestrian" priority="1" numLanes="1" speed="2.78" allow="pedestrian" oneway="1" width="2.00"/>
    <type id="highway.primary" priority="12" numLanes="2" speed="27.78" disallow="tram rail_urban rail rail_electric rail_fast ship" oneway="0"/>
    <type id="highway.primary_link" priority="7" numLanes="1" speed="22.22" disallow="tram rail_urban rail rail_electric rail_fast ship" oneway="0"/>
    <type id="highway.raceway" priority="15" numLanes="2" speed="83.33" allow="vip" oneway="0"/>
    <type id="highway.residential" priority="3" numLanes="1" speed="13.89" disallow="tram rail_urban rail rail_electric rail_fast ship" oneway="0"/>
    <type id="highway.secondary" priority="11" numLanes="1" speed="27.78" disallow="tram rail_urban rail rail_electric rail_fast ship" oneway="0"/>
    <type id="highway.secondary_link" priority="6" numLanes="1" speed="22.22" disallow="tram rail_urban rail rail_electric rail_fast ship" oneway="0"/>
    <type id="highway.service" priority="1" numLanes="1" speed="5.56" allow="pedestrian delivery bicycle" oneway="0"/>
    <type id="highway.stairs" priority="1" numLanes="1" speed="1.39" allow="pedestrian" oneway="1" width="2.00"/>
    <type id="highway.step" priority="1" numLanes="1" speed="1.39" allow="pedestrian" oneway="1" width="2.00"/>
    <type id="highway.steps" priority="1" numLanes="1" speed="1.39" allow="pedestrian" oneway="1" width="2.00"/>
    <type id="highway.tertiary" priority="10" numLanes="1" speed="22.22" disallow="tram rail_urban rail rail_electric rail_fast ship" oneway="0"/>
    <type id="highway.tertiary_link" priority="5" numLanes="1" speed="22.22" disallow="tram rail_urban rail rail_electric rail_fast ship" oneway="0"/>
    <type id="highway.track" priority="1" numLanes="1" speed="5.56" allow="pedestrian motorcycle moped bicycle" oneway="0"/>
    <type id="highway.trunk" priority="13" numLanes="2" speed="27.78" disallow="pedestrian bicycle tram rail_urban rail rail_electric rail_fast ship" oneway="0"/>
    <type id="highway.trunk_link" priority="8" numLanes="1" speed="22.22" disallow="pedestrian bicycle tram rail_urban rail rail_electric rail_fast ship" oneway="0"/>
    <type id="highway.unclassified" priority="4" numLanes="1" speed="13.89" disallow="tram rail_urban rail rail_electric rail_fast ship" oneway="0"/>
    <type id="highway.unsurfaced" priority="1" numLanes="1" speed="8.33" disallow="tram rail_urban rail rail_electric rail_fast ship" oneway="0"/>
    <type id="railway.highspeed" priority="21" numLanes="1" speed="69.44" allow="rail_fast" oneway="1"/>
    <type id="railway.light_rail" priority="19" numLanes="1" speed="27.78" allow="rail_urban" oneway="1"/>
    <type id="railway.preserved" priority="16" numLanes="1" speed="27.78" allow="rail" oneway="1"/>
    <type id="railway.rail" priority="20" numLanes="1" speed="44.44" allow="rail" oneway="1"/>
    <type id="railway.subway" priority="18" numLanes="1" speed="27.78" allow="rail_urban" oneway="1"/>
    <type id="railway.tram" priority="17" numLanes="1" speed="13.89" allow="tram" oneway="1"/>

    <edge id=":10069917856_0" function="internal">
        <lane id=":10069917856_0_0" index="0" disallow="tram rail_urban rail rail_electric rail_fast ship" speed="13.89" length="7.88" shape="684.77,834.89 689.66,841.07"/>
    </edge>
    <edge id=":10069917856_1" function="internal">
        <lane id=":10069917856_1_0" index="0" disallow="tram rail_urban rail rail_electric rail_fast ship" speed="8.63" length="7.45" shape="682.75,838.80 685.18,839.05 687.15,839.51 688.64,840.18 689.66,841.07"/>
    </edge>
    <edge id=":10069917858_0" function="internal">
        <lane id=":10069917858_0_0" index="0" disallow="tram rail_urban rail rail_electric rail_fast ship" speed="6.12" length="7.42" shape="856.55,560.59 857.88,561.66 859.44,561.99 861.21,561.57 863.19,560.41"/>
    </edge>
    <edge id=":10069917858_1" function="internal">
        <lane id=":10069917858_1_0" index="0" disallow="tram rail_urban rail rail_electric rail_fast ship" speed="13.89" length="10.63" shape="854.61,566.67 863.19,560.41"/>
    </edge>
    <edge id=":10069917859_0" function="internal">
        <lane id=":10069917859_0_0" index="0" disallow="tram rail_urban rail rail_electric rail_fast ship" speed="6.00" length="7.29" shape="728.62,661.83 729.98,662.84 731.51,663.09 733.21,662.58 735.09,661.32"/>
    </edge>
    <edge id=":10069917859_1" function="internal">
        <lane id=":10069917859_1_0" index="0" disallow="tram rail_urban rail rail_electric rail_fast ship" speed="2.78" length="1.44" shape="728.62,661.83 728.84,663.26"/>
    </edge>
    <edge id=":10069917859_4" function="internal">
        <lane id=":10069917859_4_0" index="0" disallow="tram rail_urban rail rail_electric rail_fast ship" speed="2.78" length="3.23" shape="728.84,663.26 728.52,664.09 727.66,664.34 726.26,663.99"/>
    </edge>
    <edge id=":10069917859_2" function="internal">
        <lane id=":10069917859_2_0" index="0" disallow="tram rail_urban rail rail_electric rail_fast ship" speed="6.67" length="7.61" shape="726.29,671.02 727.27,669.03 727.59,667.19 727.25,665.52 726.26,663.99"/>
    </edge>
    <edge id=":10069917859_3" function="internal">
        <lane id=":10069917859_3_0" index="0" disallow="tram rail_urban rail rail_electric rail_fast ship" speed="13.89" length="13.16" shape="726.29,671.02 728.25,668.17 730.26,665.79 732.48,663.59 735.09,661.32"/>
    </edge>
    <edge id=":10069917860_0" function="internal">
        <lane id=":10069917860_0_0" index="0" disallow="tram rail_urban rail rail_electric rail_fast ship" speed="9.53" length="7.88" shape="707.30,698.08 707.91,700.38 708.24,702.12 708.95,703.51 710.73,704.76"/>
    </edge>
    <edge id=":10069917860_1" function="internal">
        <lane id=":10069917860_1_0" index="0" disallow="tram rail_urban rail rail_electric rail_fast ship" speed="18.05" length="8.43" shape="703.34,700.70 710.73,704.76"/>
    </edge>
    <edge id=":10121333573_0" function="internal">
        <lane id=":10121333573_0_0" index="0" allow="delivery" speed="6.48" length="4.66" shape="824.20,850.86 825.28,851.54 826.37,851.94 827.46,852.05 828.57,851.87"/>
    </edge>
    <edge id=":10121333573_1" function="internal">
        <lane id=":10121333573_1_0" index="0" allow="pedestrian delivery bicycle" speed="3.65" length="1.44" shape="824.20,850.86 824.66,852.23"/>
    </edge>
    <edge id=":10121333573_5" function="internal">
        <lane id=":10121333573_5_0" index="0" allow="pedestrian delivery bicycle" speed="3.65" length="3.23" shape="824.66,852.23 824.49,853.10 823.68,853.49 822.24,853.39"/>
    </edge>
    <edge id=":10121333573_2" function="internal">
        <lane id=":10121333573_2_0" index="0" allow="delivery" speed="4.35" length="5.11" shape="822.42,856.99 823.63,856.41 824.00,855.62 823.54,854.61 822.24,853.39"/>
    </edge>
    <edge id=":10121333573_3" function="internal">
        <lane id=":10121333573_3_0" index="0" disallow="pedestrian bicycle tram rail_urban rail rail_electric rail_fast ship" speed="27.78" length="7.34" shape="822.42,856.99 829.46,854.95"/>
        <lane id=":10121333573_3_1" index="1" disallow="pedestrian bicycle tram rail_urban rail rail_electric rail_fast ship" speed="27.78" length="7.34" shape="823.31,860.07 830.36,858.02"/>
    </edge>
    <edge id=":10176602804_0" function="internal">
        <lane id=":10176602804_0_0" index="0" disallow="tram rail_urban rail rail_electric rail_fast ship" speed="13.89" length="0.22" shape="1265.92,500.07 1265.79,499.90"/>
    </edge>
    <edge id=":10177255080_0" function="internal">
        <lane id=":10177255080_0_0" index="0" disallow="tram rail_urban rail rail_electric rail_fast ship" speed="22.22" length="0.10" shape="1102.44,340.20 1102.44,340.20"/>
        <lane id=":10177255080_0_1" index="1" disallow="tram rail_urban rail rail_electric rail_fast ship" speed="22.22" length="0.10" shape="1104.00,337.40 1104.00,337.40"/>
    </edge>
    <edge id=":10198697084_0" function="internal">
        <lane id=":10198697084_0_0" index="0" allow="pedestrian delivery bicycle" speed="5.56" length="1.74" shape="1480.72,882.02 1480.36,882.39 1480.08,882.62 1479.78,882.80 1479.31,883.02"/>
    </edge>
    <edge id=":10198697084_1" function="internal">
        <lane id=":10198697084_1_0" index="0" allow="pedestrian delivery bicycle" speed="5.56" length="0.58" shape="1477.97,880.11 1478.12,880.04 1478.23,879.98 1478.32,879.90 1478.44,879.78"/>
    </edge>
    <edge id=":10198697085_0" function="internal">
        <lane id=":10198697085_0_0" index="0" allow="pedestrian delivery bicycle" speed="5.56" length="1.73" shape="1472.61,886.11 1472.14,886.32 1471.81,886.43 1471.46,886.50 1470.95,886.54"/>
    </edge>
    <edge id=":10198697085_1" function="internal">
        <lane id=":10198697085_1_0" index="0" allow="pedestrian delivery bicycle" speed="5.56" length="0.58" shape="1470.71,883.35 1470.88,883.33 1471.00,883.31 1471.11,883.27 1471.27,883.20"/>
    </edge>
    <edge id=":10198697090_0" function="internal">
        <lane id=":10198697090_0_0" index="0" allow="pedestrian delivery bicycle" speed="4.95" length="5.11" shape="1477.02,861.61 1476.34,860.37 1475.44,859.68 1474.31,859.54 1472.95,859.96"/>
    </edge>
    <edge id=":10198697090_1" function="internal">
        <lane id=":10198697090_1_0" index="0" allow="pedestrian delivery bicycle" speed="7.13" length="10.16" shape="1477.02,861.61 1476.36,858.81 1476.64,856.45 1477.85,854.51 1480.00,853.00"/>
    </edge>
    <edge id=":10198697090_2" function="internal">
        <lane id=":10198697090_2_0" index="0" allow="pedestrian delivery bicycle" speed="3.65" length="4.67" shape="1477.02,861.61 1477.35,860.21 1477.96,859.55 1478.85,859.65 1480.02,860.50"/>
    </edge>
    <edge id=":10198697090_3" function="internal">
        <lane id=":10198697090_3_0" index="0" allow="pedestrian delivery bicycle" speed="5.38" length="5.39" shape="1481.42,855.87 1480.34,856.65 1479.75,857.68 1479.64,858.96 1480.02,860.50"/>
    </edge>
    <edge id=":10198697090_4" function="internal">
        <lane id=":10198697090_4_0" index="0" disallow="tram rail_urban rail rail_electric rail_fast ship" speed="16.67" length="9.40" shape="1481.42,855.87 1472.95,859.96"/>
    </edge>
    <edge id=":10198697090_5" function="internal">
        <lane id=":10198697090_5_0" index="0" disallow="tram rail_urban rail rail_electric rail_fast ship" speed="16.67" length="9.34" shape="1471.59,857.06 1480.00,853.00"/>
    </edge>
    <edge id=":10198697090_6" function="internal">
        <lane id=":10198697090_6_0" index="0" allow="pedestrian delivery bicycle" speed="6.80" length="3.29" shape="1471.59,857.06 1474.40,856.20 1474.75,856.24"/>
    </edge>
    <edge id=":10198697090_7" function="internal">
        <lane id=":10198697090_7_0" index="0" allow="pedestrian delivery bicycle" speed="6.80" length="7.30" shape="1474.75,856.24 1476.74,856.48 1478.61,857.92 1480.02,860.50"/>
    </edge>
    <edge id=":10198885914_0" function="internal">
        <lane id=":10198885914_0_0" index="0" disallow="tram rail_urban rail rail_electric rail_fast ship" speed="2.78" length="9.43" shape="689.04,355.44 697.53,359.54"/>
    </edge>
    <edge id=":10198885914_1" function="internal">
        <lane id=":10198885914_1_0" index="0" allow="pedestrian delivery bicycle" speed="4.17" length="7.82" shape="689.04,355.44 691.45,356.80 692.98,358.18 693.60,359.59 693.33,361.01"/>
    </edge>
    <edge id=":10198885914_2" function="internal">
        <lane id=":10198885914_2_0" index="0" allow="pedestrian delivery bicycle" speed="4.17" length="7.80" shape="690.47,359.58 691.44,358.52 692.94,358.16 694.97,358.50 697.53,359.54"/>
    </edge>
    <edge id=":10198885914_3" function="internal">
        <lane id=":10198885914_3_0" index="0" allow="pedestrian delivery bicycle" speed="3.65" length="4.67" shape="690.47,359.58 691.72,358.87 692.62,358.87 693.15,359.58 693.33,361.01"/>
    </edge>
    <edge id=":10198885915_0" function="internal">
        <lane id=":10198885915_0_0" index="0" disallow="tram rail_urban rail rail_electric rail_fast ship" speed="13.89" length="9.31" shape="669.46,415.30 661.32,410.79"/>
    </edge>
    <edge id=":10198885915_1" function="internal">
        <lane id=":10198885915_1_0" index="0" allow="pedestrian delivery bicycle" speed="6.21" length="7.73" shape="669.46,415.30 667.21,413.75 665.80,412.25 665.23,410.82 665.49,409.45"/>
    </edge>
    <edge id=":10198885915_2" function="internal">
        <lane id=":10198885915_2_0" index="0" allow="pedestrian delivery bicycle" speed="6.08" length="7.77" shape="668.34,410.91 667.37,411.94 665.88,412.27 663.86,411.88 661.32,410.79"/>
    </edge>
    <edge id=":10198885915_3" function="internal">
        <lane id=":10198885915_3_0" index="0" allow="pedestrian delivery bicycle" speed="3.65" length="4.67" shape="668.34,410.91 667.08,411.61 666.19,411.60 665.66,410.88 665.49,409.45"/>
    </edge>
    <edge id=":1026541390_0" function="internal">
        <lane id=":1026541390_0_0" index="0" disallow="tram rail_urban rail rail_electric rail_fast ship" speed="3.65" length="4.67" shape="1496.76,148.85 1497.99,148.10 1498.88,148.07 1499.44,148.77 1499.66,150.19"/>
    </edge>
    <edge id=":1026792449_0" function="internal">
        <lane id=":1026792449_0_0" index="0" disallow="tram rail_urban rail rail_electric rail_fast ship" speed="16.67" length="14.21" shape="1709.60,614.73 1697.77,622.61"/>
    </edge>
    <edge id=":1026792449_1" function="internal">
        <lane id=":1026792449_1_0" index="0" disallow="tram rail_urban rail rail_electric rail_fast ship" speed="8.31" length="3.75" shape="1709.60,614.73 1706.18,616.25"/>
    </edge>
    <edge id=":1026792449_2" function="internal">
        <lane id=":1026792449_2_0" index="0" disallow="tram rail_urban rail rail_electric rail_fast ship" speed="3.65" length="1.44" shape="1709.60,614.73 1708.16,614.70"/>
    </edge>
    <edge id=":1026792449_9" function="internal">
        <lane id=":1026792449_9_0" index="0" disallow="tram rail_urban rail rail_electric rail_fast ship" speed="8.31" length="10.48" shape="1706.18,616.25 1702.95,616.34 1699.93,615.01 1697.10,612.25"/>
    </edge>
    <edge id=":1026792449_10" function="internal">
        <lane id=":1026792449_10_0" index="0" disallow="tram rail_urban rail rail_electric rail_fast ship" speed="3.65" length="3.23" shape="1708.16,614.70 1707.39,614.23 1707.30,613.34 1707.89,612.03"/>
    </edge>
    <edge id=":1026792449_3" function="internal">
        <lane id=":1026792449_3_0" index="0" disallow="tram rail_urban rail rail_electric rail_fast ship" speed="6.88" length="9.43" shape="1699.62,610.27 1701.51,612.13 1703.52,613.05 1705.64,613.01 1707.89,612.03"/>
    </edge>
    <edge id=":1026792449_4" function="internal">
        <lane id=":1026792449_4_0" index="0" disallow="tram rail_urban rail rail_electric rail_fast ship" speed="7.90" length="14.41" shape="1699.62,610.27 1701.61,613.72 1701.96,616.93 1700.68,619.89 1697.77,622.61"/>
    </edge>
    <edge id=":1026792449_5" function="internal">
        <lane id=":1026792449_5_0" index="0" disallow="tram rail_urban rail rail_electric rail_fast ship" speed="2.78" length="1.44" shape="1699.62,610.27 1699.73,611.71"/>
    </edge>
    <edge id=":1026792449_11" function="internal">
        <lane id=":1026792449_11_0" index="0" disallow="tram rail_urban rail rail_electric rail_fast ship" speed="2.78" length="3.23" shape="1699.73,611.71 1699.35,612.52 1698.47,612.70 1697.10,612.25"/>
    </edge>
    <edge id=":1026792449_6" function="internal">
        <lane id=":1026792449_6_0" index="0" disallow="tram rail_urban rail rail_electric rail_fast ship" speed="6.39" length="9.04" shape="1695.95,619.98 1697.77,618.28 1698.57,616.42 1698.35,614.41 1697.10,612.25"/>
    </edge>
    <edge id=":1026792449_7" function="internal">
        <lane id=":1026792449_7_0" index="0" disallow="tram rail_urban rail rail_electric rail_fast ship" speed="16.67" length="14.35" shape="1695.95,619.98 1707.89,612.03"/>
    </edge>
    <edge id=":1026792449_8" function="internal">
        <lane id=":1026792449_8_0" index="0" disallow="tram rail_urban rail rail_electric rail_fast ship" speed="3.65" length="1.44" shape="1695.95,619.98 1697.39,619.95"/>
    </edge>
    <edge id=":1026792449_12" function="internal">
        <lane id=":1026792449_12_0" index="0" disallow="tram rail_urban rail rail_electric rail_fast ship" speed="3.65" length="3.23" shape="1697.39,619.95 1698.17,620.38 1698.30,621.26 1697.77,622.61"/>
    </edge>
    <edge id=":1026792473_0" function="internal">
        <lane id=":1026792473_0_0" index="0" allow="pedestrian delivery bicycle" speed="3.65" length="4.67" shape="1229.78,376.22 1228.71,375.26 1228.43,374.41 1228.93,373.68 1230.24,373.06"/>
    </edge>
    <edge id=":1026792483_0" function="internal">
        <lane id=":1026792483_0_0" index="0" disallow="tram rail_urban rail rail_electric rail_fast ship" speed="8.34" length="11.82" shape="1488.32,451.55 1477.83,446.10"/>
    </edge>
    <edge id=":1026792483_1" function="internal">
        <lane id=":1026792483_1_0" index="0" disallow="tram rail_urban rail rail_electric rail_fast ship" speed="2.78" length="4.39" shape="1488.32,451.55 1484.75,448.99"/>
    </edge>
    <edge id=":1026792483_2" function="internal">
        <lane id=":1026792483_2_0" index="0" disallow="tram rail_urban rail rail_electric rail_fast ship" speed="2.78" length="1.44" shape="1488.32,451.55 1487.62,450.28"/>
    </edge>
    <edge id=":1026792483_9" function="internal">
        <lane id=":1026792483_9_0" index="0" disallow="tram rail_urban rail rail_electric rail_fast ship" speed="2.78" length="10.97" shape="1484.75,448.99 1483.21,446.08 1483.70,442.83 1486.23,439.24"/>
    </edge>
    <edge id=":1026792483_10" function="internal">
        <lane id=":1026792483_10_0" index="0" disallow="tram rail_urban rail rail_electric rail_fast ship" speed="2.78" length="3.23" shape="1487.62,450.28 1487.64,449.39 1488.36,448.86 1489.80,448.71"/>
    </edge>
    <edge id=":1026792483_3" function="internal">
        <lane id=":1026792483_3_0" index="0" disallow="tram rail_urban rail rail_electric rail_fast ship" speed="2.78" length="9.08" shape="1488.56,441.43 1487.07,443.56 1486.78,445.48 1487.68,447.19 1489.80,448.71"/>
    </edge>
    <edge id=":1026792483_4" function="internal">
        <lane id=":1026792483_4_0" index="0" disallow="tram rail_urban rail rail_electric rail_fast ship" speed="8.34" length="12.48" shape="1488.56,441.43 1485.47,444.30 1482.65,446.04 1480.10,446.64 1477.83,446.10"/>
    </edge>
    <edge id=":1026792483_5" function="internal">
        <lane id=":1026792483_5_0" index="0" disallow="tram rail_urban rail rail_electric rail_fast ship" speed="2.78" length="1.44" shape="1488.56,441.43 1487.15,441.76"/>
    </edge>
    <edge id=":1026792483_11" function="internal">
        <lane id=":1026792483_11_0" index="0" disallow="tram rail_urban rail rail_electric rail_fast ship" speed="2.78" length="3.23" shape="1487.15,441.76 1486.30,441.50 1485.99,440.66 1486.23,439.24"/>
    </edge>
    <edge id=":1026792483_6" function="internal">
        <lane id=":1026792483_6_0" index="0" disallow="tram rail_urban rail rail_electric rail_fast ship" speed="7.02" length="8.40" shape="1479.29,443.26 1480.52,443.42 1482.09,442.80 1483.99,441.41 1486.23,439.24"/>
    </edge>
    <edge id=":1026792483_7" function="internal">
        <lane id=":1026792483_7_0" index="0" disallow="tram rail_urban rail rail_electric rail_fast ship" speed="8.34" length="11.83" shape="1479.29,443.26 1489.80,448.71"/>
    </edge>
    <edge id=":1026792483_8" function="internal">
        <lane id=":1026792483_8_0" index="0" disallow="tram rail_urban rail rail_electric rail_fast ship" speed="3.65" length="1.44" shape="1479.29,443.26 1479.99,444.52"/>
    </edge>
    <edge id=":1026792483_12" function="internal">
        <lane id=":1026792483_12_0" index="0" disallow="tram rail_urban rail rail_electric rail_fast ship" speed="3.65" length="3.23" shape="1479.99,444.52 1479.98,445.41 1479.26,445.94 1477.83,446.10"/>
    </edge>
    <edge id=":1026792544_0" function="internal">
        <lane id=":1026792544_0_0" index="0" disallow="tram rail_urban rail rail_electric rail_fast ship" speed="6.28" length="9.04" shape="1345.13,454.91 1342.74,454.11 1340.75,454.31 1339.15,455.51 1337.94,457.72"/>
    </edge>
    <edge id=":1026792544_1" function="internal">
        <lane id=":1026792544_1_0" index="0" disallow="tram rail_urban rail rail_electric rail_fast ship" speed="13.89" length="14.47" shape="1345.13,454.91 1332.16,448.51"/>
    </edge>
    <edge id=":1026792544_2" function="internal">
        <lane id=":1026792544_2_0" index="0" disallow="tram rail_urban rail rail_electric rail_fast ship" speed="3.65" length="1.44" shape="1345.13,454.91 1344.42,453.66"/>
    </edge>
    <edge id=":1026792544_12" function="internal">
        <lane id=":1026792544_12_0" index="0" disallow="tram rail_urban rail rail_electric rail_fast ship" speed="3.65" length="3.23" shape="1344.42,453.66 1344.42,452.76 1345.14,452.23 1346.57,452.06"/>
    </edge>
    <edge id=":1026792544_3" function="internal">
        <lane id=":1026792544_3_0" index="0" disallow="tram rail_urban rail rail_electric rail_fast ship" speed="7.20" length="10.90" shape="1342.07,443.46 1341.48,445.93 1342.03,448.18 1343.73,450.23 1346.57,452.06"/>
    </edge>
    <edge id=":1026792544_4" function="internal">
        <lane id=":1026792544_4_0" index="0" disallow="tram rail_urban rail rail_electric rail_fast ship" speed="13.89" length="14.86" shape="1342.07,443.46 1340.80,446.95 1339.89,450.54 1339.03,454.16 1337.94,457.72"/>
    </edge>
    <edge id=":1026792544_5" function="internal">
        <lane id=":1026792544_5_0" index="0" disallow="tram rail_urban rail rail_electric rail_fast ship" speed="7.54" length="12.69" shape="1342.07,443.46 1340.08,446.80 1337.77,448.75 1335.13,449.32 1332.16,448.51"/>
    </edge>
    <edge id=":1026792544_6" function="internal">
        <lane id=":1026792544_6_0" index="0" disallow="tram rail_urban rail rail_electric rail_fast ship" speed="13.89" length="14.54" shape="1333.54,445.62 1346.57,452.06"/>
    </edge>
    <edge id=":1026792544_7" function="internal">
        <lane id=":1026792544_7_0" index="0" disallow="tram rail_urban rail rail_electric rail_fast ship" speed="8.33" length="4.00" shape="1333.54,445.62 1336.65,447.74 1336.78,447.94"/>
    </edge>
    <edge id=":1026792544_8" function="internal">
        <lane id=":1026792544_8_0" index="0" disallow="tram rail_urban rail rail_electric rail_fast ship" speed="3.65" length="1.44" shape="1333.54,445.62 1334.28,446.86"/>
    </edge>
    <edge id=":1026792544_13" function="internal">
        <lane id=":1026792544_13_0" index="0" disallow="tram rail_urban rail rail_electric rail_fast ship" speed="8.33" length="10.40" shape="1336.78,447.94 1338.42,450.46 1338.85,453.79 1337.94,457.72"/>
    </edge>
    <edge id=":1026792544_14" function="internal">
        <lane id=":1026792544_14_0" index="0" disallow="tram rail_urban rail rail_electric rail_fast ship" speed="3.65" length="3.23" shape="1334.28,446.86 1334.29,447.76 1333.58,448.30 1332.16,448.51"/>
    </edge>
    <edge id=":1026792544_9" function="internal">
        <lane id=":1026792544_9_0" index="0" disallow="tram rail_urban rail rail_electric rail_fast ship" speed="6.90" length="9.57" shape="1334.94,456.60 1335.57,453.95 1335.31,451.71 1334.18,449.90 1332.16,448.51"/>
    </edge>
    <edge id=":1026792544_10" function="internal">
        <lane id=":1026792544_10_0" index="0" disallow="tram rail_urban rail rail_electric rail_fast ship" speed="7.81" length="14.63" shape="1334.94,456.60 1336.90,453.03 1339.49,451.08 1342.71,450.76 1346.57,452.06"/>
    </edge>
    <edge id=":1026792544_11" function="internal">
        <lane id=":1026792544_11_0" index="0" disallow="tram rail_urban rail rail_electric rail_fast ship" speed="3.65" length="1.44" shape="1334.94,456.60 1336.11,455.76"/>
    </edge>
    <edge id=":1026792544_15" function="internal">
        <lane id=":1026792544_15_0" index="0" disallow="tram rail_urban rail rail_electric rail_fast ship" speed="3.65" length="3.23" shape="1336.11,455.76 1337.00,455.66 1337.61,456.32 1337.94,457.72"/>
    </edge>
    <edge id=":1026792559_0" function="internal">
        <lane id=":1026792559_0_0" index="0" disallow="tram rail_urban rail rail_electric rail_fast ship" speed="6.60" length="9.17" shape="1372.88,393.71 1370.47,392.90 1368.38,393.02 1366.61,394.08 1365.16,396.08"/>
    </edge>
    <edge id=":1026792559_1" function="internal">
        <lane id=":1026792559_1_0" index="0" disallow="tram rail_urban rail rail_electric rail_fast ship" speed="2.78" length="1.44" shape="1372.88,393.71 1372.16,392.46"/>
    </edge>
    <edge id=":1026792559_4" function="internal">
        <lane id=":1026792559_4_0" index="0" disallow="tram rail_urban rail rail_electric rail_fast ship" speed="2.78" length="3.23" shape="1372.16,392.46 1372.16,391.56 1372.88,391.03 1374.31,390.85"/>
    </edge>
    <edge id=":1026792559_2" function="internal">
        <lane id=":1026792559_2_0" index="0" disallow="tram rail_urban rail rail_electric rail_fast ship" speed="6.44" length="9.03" shape="1371.93,383.35 1371.08,385.68 1371.19,387.71 1372.26,389.43 1374.31,390.85"/>
    </edge>
    <edge id=":1026792559_3" function="internal">
        <lane id=":1026792559_3_0" index="0" disallow="tram rail_urban rail rail_electric rail_fast ship" speed="13.89" length="14.42" shape="1371.93,383.35 1365.16,396.08"/>
    </edge>
    <edge id=":1026792563_0" function="internal">
        <lane id=":1026792563_0_0" index="0" allow="pedestrian delivery bicycle" speed="5.56" length="7.11" shape="1260.72,398.74 1259.05,397.46 1257.80,396.70 1256.43,396.23 1254.37,395.82"/>
    </edge>
    <edge id=":1026792563_1" function="internal">
        <lane id=":1026792563_1_0" index="0" allow="pedestrian delivery bicycle" speed="5.56" length="9.36" shape="1260.72,398.74 1258.97,396.94 1258.09,394.95 1258.10,392.78 1258.98,390.43"/>
    </edge>
    <edge id=":1026792563_2" function="internal">
        <lane id=":1026792563_2_0" index="0" allow="pedestrian delivery bicycle" speed="3.65" length="4.67" shape="1260.72,398.74 1260.26,397.37 1260.44,396.49 1261.25,396.11 1262.69,396.21"/>
    </edge>
    <edge id=":1026792563_3" function="internal">
        <lane id=":1026792563_3_0" index="0" allow="pedestrian delivery bicycle" speed="5.25" length="4.81" shape="1261.79,391.95 1261.34,393.16 1261.34,394.27 1261.79,395.29 1262.69,396.21"/>
    </edge>
    <edge id=":1026792563_4" function="internal">
        <lane id=":1026792563_4_0" index="0" allow="pedestrian delivery bicycle" speed="5.56" length="9.00" shape="1261.79,391.95 1260.38,393.96 1258.67,395.27 1256.67,395.89 1254.37,395.82"/>
    </edge>
    <edge id=":1026792563_5" function="internal">
        <lane id=":1026792563_5_0" index="0" allow="pedestrian delivery bicycle" speed="3.65" length="4.67" shape="1261.79,391.95 1260.52,392.63 1259.63,392.60 1259.11,391.87 1258.98,390.43"/>
    </edge>
    <edge id=":1026792563_6" function="internal">